-----BEGIN PGP SIGNATURE-----
Version: GnuPG v1

iEYEABECAAYFAll27xMACgkQSEef9kjbRTDH8wCfcoyPJIVc5Ue9WnW8Uv2SMFRB
Ig4AoKOSNwCZ0Xly1uLJF5XgzHOCfbzn
=MT3D
-----END PGP SIGNATURE-----
